<?xml version="1.0" ?>
<routes>
  <vType id="bus" vClass="bus" length="12" maxSpeed="60.01" color="yellow"/>
  <vType id="car" vClass="passenger" length="4.5" maxSpeed="60.01" color="1,0,0"/>
  <route id="route_wm_rb" edges="651534986 577219024 575171174 880825246#0 1058612957#0 821743148 1061538938 561765484#0 1001603605 1059401241 978918035 584296010#0 584296008 584296003 584296001#0 780751316 989282631 561795298 969794962 821743150 570909464 1510171091 1510171092 541340121 555324827"/>
  <route id="route_rb_wm" edges="555324827 541340121 1510171092 1510171091 570909464 821743150 969794962 561795298 989282631 780751316 584296001#0 584296003 584296008 584296010#0 978918035 1059401241 1001603605 561765484#0 1061538938 821743148 1058612957#0 880825246#0 575171174 577219024 651534986"/>
  <flow id="bus_wm_rb" type="bus" route="route_wm_rb" begin="0" end="3600" period="125"/>
  <flow id="car_wm_rb" type="car" route="route_wm_rb" begin="0" end="3600" vehsPerHour="180"/>
  <flow id="bus_rb_wm" type="bus" route="route_rb_wm" begin="0" end="3600" period="187"/>
</routes>
